powerflow/Codes/PF_Formulation/resultados_csv/16/3bus/ramos.csv
caso,script,branch_id,f_bus,t_bus,pf_pu,qf_pu,pt_pu,qt_pu,loss_p_pu,loss_q_pu
3bus.pwf,16,1,1,2,0.017868195891416316,-0.02434766409849433,-0.017712283254827887,0.024497546964606057,0.0001559126365884289,0.00014988286611172796
3bus.pwf,16,2,1,3,0.1650322213722831,0.01917603555885386,-0.1603136591405286,-0.014639959159266885,0.004718562231754486,0.004536076399586975
3bus.pwf,16,3,2,3,0.14761228325482684,0.042520283806394644,-0.14358634085947092,-0.03865004084069327,0.004025942395355919,0.003870242965701376
